Info: SIMULATION PARAMETERS:
Info: TIMESTEP               1
Info: NUMBER OF STEPS        0
Info: STEPS PER CYCLE        20
Info: PERIODIC CELL BASIS 1  23.623 0 0
Info: PERIODIC CELL BASIS 2  0 22.406 0
Info: PERIODIC CELL BASIS 3  0 0 27.176
Info: PERIODIC CELL CENTER   0.689 1.768 0.612
Info: WRAPPING WATERS AROUND PERIODIC BOUNDARIES ON OUTPUT.
Info: WRAPPING ALL CLUSTERS AROUND PERIODIC BOUNDARIES ON OUTPUT.
Info: FIRST LDB TIMESTEP     100
Info: HOM BACKGROUND SCALING 1
Info: PME BACKGROUND SCALING 1
Info: MAX SELF PARTITIONS    50
Info: MAX PAIR PARTITIONS    20
Info: SELF PARTITION ATOMS   125
Info: PAIR PARTITION ATOMS   200
Info: PAIR2 PARTITION ATOMS  400
Info: INITIAL TEMPERATURE    100
Info: CENTER OF MASS MOVING? NO
Info: DIELECTRIC             1
Info: EXCLUDE                SCALED ONE-FOUR
Info: 1-4 SCALE FACTOR       1
Info: DCD FILENAME           melt-100-grad2-01.dcd
Info: DCD FREQUENCY          1000
Info: XST FILENAME           melt-100-grad2-01.xst
Info: XST FREQUENCY          1000
Info: NO VELOCITY DCD OUTPUT
Info: OUTPUT FILENAME        melt-100-grad2-01
Info: BINARY OUTPUT FILES WILL BE USED
Info: RESTART FILENAME       melt-100-grad2-01.restart
Info: RESTART FREQUENCY      1000
Info: BINARY RESTART FILES WILL BE USED
Info: SWITCHING ACTIVE
Info: SWITCHING ON           10
Info: SWITCHING OFF          12
Info: PAIRLIST DISTANCE      13.5
Info: PAIRLIST SHRINK RATE   0.01
Info: PAIRLIST GROW RATE     0.01
Info: PAIRLIST TRIGGER       0.3
Info: PAIRLISTS PER CYCLE    2
Info: PAIRLISTS ENABLED
Info: MARGIN                 0
Info: HYDROGEN GROUP CUTOFF  2.5
Info: PATCH DIMENSION        16
Info: ENERGY OUTPUT STEPS    100
Info: PRESSURE OUTPUT STEPS  100
Info: VELOCITY REASSIGNMENT FREQ  2000
Info: VELOCITY REASSIGNMENT TEMP  100
Info: VELOCITY REASSIGNMENT INCR  1
Info: VELOCITY REASSIGNMENT HOLD  300
Info: PARTICLE MESH EWALD (PME) ACTIVE
Info: PME TOLERANCE               1e-06
Info: PME EWALD COEFFICIENT       0.257952
Info: PME INTERPOLATION ORDER     4
Info: PME GRID DIMENSIONS         50 50 50
Info: FULL ELECTROSTATIC EVALUATION FREQUENCY      4
Info: USING VERLET I (r-RESPA) MTS SCHEME.
Info: C1 SPLITTING OF LONG RANGE ELECTROSTATICS
Info: PLACING ATOMS IN PATCHES BY HYDROGEN GROUPS
Info: NONBONDED FORCES EVALUATED EVERY 2 STEPS
Info: RANDOM NUMBER SEED     1096042647
Info: USE HYDROGEN BONDS?    NO
Info: COORDINATE PDB         ../common/ICES.pdb
Info: STRUCTURE FILE         ../common/ICES.psf
Info: PARAMETER file: CHARMM format!
Info: PARAMETERS             /Projects/timisgro/toppar/par_all27_prot_lipid.inp
Info: SUMMARY OF PARAMETERS:
Info: 179 BONDS
Info: 441 ANGLES
Info: 534 DIHEDRAL
Info: 49 IMPROPER
Info: 89 VDW
Info: 0 VDW_PAIRS
Info: STRUCTURE SUMMARY:
Info: 1296 ATOMS
Info: 864 BONDS
Info: 432 ANGLES
Info: 0 DIHEDRALS
Info: 0 IMPROPERS
Info: 0 EXCLUSIONS
Info: 3885 DEGREES OF FREEDOM
Info: 432 HYDROGEN GROUPS
Info: TOTAL MASS = 7782.65 amu
Info: TOTAL CHARGE = 0 e
Info: REMOVING COM VELOCITY 0.111711 -0.0403978 0.105178
Info: COULOMB TABLE R-SQUARED SPACING: 0.0625
Info: COULOMB TABLE SIZE: 769 POINTS
Info: NONZERO IMPRECISION IN COULOMB TABLE: 2.11758e-22 (712) 2.11758e-22 (712)
Info: NONZERO IMPRECISION IN COULOMB TABLE: 1.26218e-29 (742) 1.57772e-29 (742)
Info: NONZERO IMPRECISION IN COULOMB TABLE: 1.27055e-21 (767) 1.48231e-21 (767)
TCL: Minimizing for 1000 steps
Info: Removing unused proxy 0 on Pe(35).
Info: Removing unused proxy 0 on Pe(43).
Info: Removing unused proxy 0 on Pe(15).
Info: Removing unused proxy 0 on Pe(47).
ETITLE: TS BOND ANGLE DIHED IMPRP ELECT VDW BOUNDARY MISC KINETIC TOTAL TEMP TOTAL2 TOTAL3 TEMPAVG PRESSURE GPRESSURE VOLUME PRESSAVG GPRESSAVG
ENERGY: 0 710.1027 176.7787 0.0000 0.0000 -7003.7132 928.3675 0.0000 0.0000 0.0000 -5188.4644 0.0000 -5188.4644 -5188.4644 0.0000 -30129.6808 -7788.2719 14384.1735 -30129.6808 -7788.2719
ENERGY: 200 236.2654 43.0783 0.0000 0.0000 -6936.9469 868.4750 0.0000 0.0000 0.0000 -5789.1282 0.0000 -5789.1282 -5789.1282 0.0000 -8225.0018 -8126.6889 14384.1735 -8225.0018 -8126.6889
ENERGY: 400 235.8316 44.7741 0.0000 0.0000 -6938.2363 859.0810 0.0000 0.0000 0.0000 -5798.5496 0.0000 -5798.5496 -5798.5496 0.0000 -8436.1249 -8382.2190 14384.1735 -8436.1249 -8382.2190
ENERGY: 600 235.4151 45.9449 0.0000 0.0000 -6937.1038 854.5397 0.0000 0.0000 0.0000 -5801.2041 0.0000 -5801.2041 -5801.2041 0.0000 -8511.6621 -8481.8630 14384.1735 -8511.6621 -8481.8630
ENERGY: 800 235.1576 46.4111 0.0000 0.0000 -6935.3327 852.1448 0.0000 0.0000 0.0000 -5801.6192 0.0000 -5801.6192 -5801.6192 0.0000 -8545.2205 -8531.0551 14384.1735 -8545.2205 -8531.0551
ENERGY: 1000 234.7642 46.7261 0.0000 0.0000 -6934.9536 851.6137 0.0000 0.0000 0.0000 -5801.8497 0.0000 -5801.8497 -5801.8497 0.0000 -8532.3414 -8540.6798 14384.1735 -8532.3414 -8540.6798
TCL: Running for 400000 steps
Info: Removing unused proxy 0 on Pe(13).
Info: Removing unused proxy 0 on Pe(41).
Info: Removing unused proxy 0 on Pe(23).
Info: Removing unused proxy 0 on Pe(9).
Info: Removing unused proxy 0 on Pe(19).
Info: Removing unused proxy 0 on Pe(43).
Info: Removing unused proxy 0 on Pe(43).
Info: Removing unused proxy 0 on Pe(19).
Info: Removing unused proxy 0 on Pe(23).
Info: Removing unused proxy 0 on Pe(3).
Info: Removing unused proxy 0 on Pe(19).
Info: Removing unused proxy 0 on Pe(23).
Info: Removing unused proxy 0 on Pe(3).
Info: Removing unused proxy 0 on Pe(43).
ETITLE: TS BOND ANGLE DIHED IMPRP ELECT VDW BOUNDARY MISC KINETIC TOTAL TEMP TOTAL2 TOTAL3 TEMPAVG PRESSURE GPRESSURE VOLUME PRESSAVG GPRESSAVG
ENERGY: 1000 234.7642 46.7261 0.0000 0.0000 -6934.9536 851.6137 0.0000 0.0000 381.7946 -5420.0551 98.9075 -5411.5902 -5443.3335 98.9075 -7220.7308 -8125.1147 14384.1735 -7220.7308 -8125.1147
ENERGY: 81000 306.8308 100.3846 0.0000 0.0000 -6508.6724 877.3778 0.0000 0.0000 522.2326 -4701.8466 135.2893 -4687.1805 -4687.5089 135.3055 -1757.1202 -4787.6870 14384.1735 -4874.8916 -4873.9082
ENERGY: 161000 342.4059 165.1995 0.0000 0.0000 -6392.4305 794.9255 0.0000 0.0000 712.2451 -4377.6544 184.5138 -4362.6641 -4360.1365 178.5071 -2489.6872 -4598.2554 14384.1735 -4259.1532 -4265.6230
ENERGY: 241000 360.7847 193.4515 0.0000 0.0000 -6216.6672 761.4851 0.0000 0.0000 844.0772 -4056.8687 218.6661 -4039.8336 -4040.7716 217.4971 -1148.1085 -4090.8445 14384.1735 -3881.7556 -3880.2775
ENERGY: 321000 363.0573 222.5607 0.0000 0.0000 -5653.7860 686.3409 0.0000 0.0000 968.8568 -3412.9702 250.9915 -3396.5820 -3394.1435 252.9353 811.3481 -1447.4011 14384.1735 -1664.6651 -1663.7932
ENERGY: 401000 388.2668 233.5873 0.0000 0.0000 -5219.9221 544.3744 0.0000 0.0000 1122.5548 -2931.1388 290.8084 -2912.6345 -2915.8099 295.4866 1460.6970 -2124.0487 14384.1735 -2042.0494 -2037.6895
